/*---------------------------------------------------------------------------*\
| =========                 |                                                 |
| \\      /  F ield         | OpenFOAM: The Open Source CFD Toolbox           |
|  \\    /   O peration     | Version:  1.0                                   |
|   \\  /    A nd           | Web:      http://www.openfoam.org               |
|    \\/     M anipulation  |                                                 |
\*---------------------------------------------------------------------------*/

FoamFile
{
    version         2.0;
    format          ascii;
    instance        "system";
    class           dictionary;
    object          perturbUDict;
}

// * * * * * * * * * * * * * * * * * * * * * * * * * * * * * * * * * * * * * //
// Expected turbulent Re(tau) Reynolds number with respect to utau
Retau 300;//395;

// Streamwise component of flow. 0=x, 1=y, 2=z
streamwise 2;

// Spanwise component of flow. 0=x, 1=y, 2=z
spanwise 0;

// Halfheight of channel. This is the direction normal to both streamwise and
// spanwise directions.
d 0.25;

//spanwise perturbation spacing in wall units 2pi/betaPlus
betaPlus 100;

//streamwise perturbation spacing in wall units, 2pi/alphaPlus
alphaPlus 102;

//transverse decay
sigma 0.00008;

//Streamwise linear perturbation amplitude as a fraction of Ubar
epsilonStream 0.002;

//Spanwise linear perturbation amplitude as a fraction of Ubar
epsilonSpan 0.002;

//Seed for random pertubation
perturbationSeed 3456;
// ************************************************************************* //